*Heading
** Job name: fCPS6 Model name: fine_CPS6
** Generated by: Abaqus/CAE Student Edition 2021
*Preprint, echo=NO, model=NO, history=NO, contact=NO
** ----------------------------------------------------------------
** 
** PART INSTANCE: Part-1-1
** 
*Node
      1,   2.12968779,  0.748563945
      2,   1.78302097,  0.453000009
      3,           2.,           0.
      4,   2.41700006,           0.
      5,   1.16499996,  0.812830687
      6,   1.36939037,   1.30441773
      7,           0.,   1.58299994
      8,           0.,           1.
      9,   2.83276558,   1.34800005
     10,         3.25,           0.
     11,   1.78299999,   2.29920578
     12,           0.,         2.75
     13,   1.95635438,  0.600781977
     14,   1.93760836,   0.24782756
     15,   2.20849991,           0.
     16,   2.33895946,  0.399010003
     17,   1.26719522,   1.05862427
     18,  0.699454725,   1.51526558
     19,           0.,   1.29149997
     20,  0.590530932,  0.955415249
** ... 97 like lines cut
*Element, type=CPS6
1, 30, 16, 13, 39, 38, 37
2,  1, 13, 16, 36, 38, 40
3, 14, 30,  2, 44, 43, 42
4, 13,  2, 30, 41, 43, 37
5, 15,  4, 30, 47, 46, 45
6, 16, 30,  4, 39, 46, 48
7,  3, 15, 14, 51, 50, 49
8, 30, 14, 15, 44, 50, 45
 9, 31, 20, 17, 55, 54, 53
10,  5, 17, 20, 52, 54, 56
11, 18, 31,  6, 60, 59, 58
12, 17,  6, 31, 57, 59, 53
13, 19,  8, 31, 63, 62, 61
14, 20, 31,  8, 55, 62, 64
15,  7, 19, 18, 67, 66, 65
16, 31, 18, 19, 60, 66, 61
17,  9, 21, 23, 68, 69, 70
18, 21, 32, 23, 71, 72, 69
19, 21,  1, 32, 73, 74, 71
20,  1, 16, 32, 40, 75, 74
** ... 28 like lines cut
*Nset, nset=Part-1-1_Set-2, generate
   1,  117,    1
*Elset, elset=Part-1-1_Set-2, generate
  1,  48,   1
** Section: Section-1
*Solid Section, elset=Part-1-1_Set-2, material=Material-1
0.1,
*System
*Nset, nset=Set-1
   7,   8,  12,  19,  28,  63,  67, 104, 107
*Elset, elset=Set-1
 13, 15, 38, 40
*Nset, nset=Set-2
  3,  4, 10, 15, 22, 47, 51, 79, 81
*Elset, elset=Set-2
  5,  7, 22, 24
*Elset, elset=_Surf-1_S3, generate
 17,  29,   4
*Elset, elset=_Surf-1_S1
 36, 40
*Surface, type=ELEMENT, name=Surf-1
_Surf-1_S3, S3
_Surf-1_S1, S1
** 
** MATERIALS
** 
*Material, name=Material-1
*Elastic
210000., 0.3
** ----------------------------------------------------------------
** 
** STEP: Step-1
** 
*Step, name=Step-1, nlgeom=NO
*Static
1., 1., 1e-05, 1.
** 
** BOUNDARY CONDITIONS
** 
** Name: BC-1 Type: Displacement/Rotation
*Boundary
Set-1, 1, 1
** Name: BC-2 Type: Displacement/Rotation
*Boundary
Set-2, 2, 2
** 
** LOADS
** 
** Name: Load-1   Type: Pressure
*Dsload
Surf-1, P, -10.
** 
** OUTPUT REQUESTS
** 
*Restart, write, frequency=0
*NODE PRINT, NSET=Nall
U
*EL PRINT, ELSET=Eall
S
*NODE FILE
U
*EL FILE
S
*End Step
