*Heading
**
*Node
      1,   2.12968779,  0.748563945,  0.300000012
      2,   2.41700006,           0.,  0.300000012
      3,         3.25,           0.,  0.300000012
      4,   2.83276558,   1.34800005,  0.300000012
      5,   2.41700006,           0.,           0.
      6,         3.25,           0.,           0.
      7,   2.83276558,   1.34800005,           0.
      8,   2.12968779,  0.748563945,           0.
      9,   1.36939037,   1.30441773,  0.300000012
     10,   1.16499996,  0.812830687,  0.300000012
     11,   1.78302097,  0.453000009,  0.300000012
     12,   1.16499996,  0.812830687,           0.
     13,   1.78302097,  0.453000009,           0.
     14,   1.36939037,   1.30441773,           0.
     15,   1.78299999,   2.29920578,  0.300000012
     16,   1.78299999,   2.29920578,           0.
     17,           0.,   1.58299994,  0.300000012
     18,           0.,           1.,  0.300000012
     19,           0.,   1.58299994,           0.
     20,           0.,           1.,           0.
** ... 91 like lines cut
*Element, type=C3D20
1,  8,  5,  6,  7,  1,  2,  3,  4, 40, 39, 38, 37, 41, 42, 43,
   44, 46, 45, 47, 48
2, 14, 12, 13,  8,  9, 10, 11,  1, 52, 51, 50, 49, 53, 54, 55,
   56, 58, 57, 59, 46
3, 14,  8,  7, 16,  9,  1,  4, 15, 49, 37, 61, 60, 56, 44, 62,
   63, 58, 46, 48, 64
4, 14, 19, 20, 12,  9, 17, 18, 10, 67, 66, 65, 52, 68, 69, 70,
   53, 58, 71, 72, 57
5, 19, 14, 16, 22, 17,  9, 15, 21, 67, 60, 74, 73, 68, 63, 75,
   76, 71, 58, 64, 77
6,  1,  2,  3,  4, 23, 24, 25, 26, 41, 42, 43, 44, 78, 79, 80,
   81, 83, 82, 84, 85
7,  9, 10, 11,  1, 27, 28, 29, 23, 53, 54, 55, 56, 86, 87, 88,
   89, 91, 90, 92, 83
8,  9,  1,  4, 15, 27, 23, 26, 30, 56, 44, 62, 63, 89, 81, 93,
   94, 91, 83, 85, 95
 9,   9,  17,  18,  10,  27,  31,  32,  28,  68,  69,  70,  53,  96,  97,  98,
     86,  91,  99, 100,  90
10,  17,   9,  15,  21,  31,  27,  30,  33,  68,  63,  75,  76,  96,  94, 101,
    102,  99,  91,  95, 103
** ... 4 like lines cut
*Nset, nset=Part-1-1_Set-4, generate
   1,  111,    1
*Elset, elset=Part-1-1_Set-4, generate
  1,  12,   1
**
*Solid Section, elset=Part-1-1_Set-4, material=Material-1
,
*System
*Nset, nset=Fixxy
   3,   4,   6,   7,  15,  16,  21,  22,  25,  26,  30,  33,  38,  43,  47,  48
  61,  62,  64,  74,  75,  77,  80,  84,  85,  93,  95, 101, 103
*Elset, elset=Fixxy
  1,  3,  5,  6,  8, 10
*Nset, nset=fixx
  17,  18,  19,  20,  21,  22,  31,  32,  33,  66,  69,  71,  72,  73,  76,  77
  97,  99, 100, 102, 103
*Elset, elset=fixx
  4,  5,  9, 10
*Nset, nset=fixy
   2,   3,   5,   6,  24,  25,  34,  35,  36,  39,  42,  45,  47,  79,  82,  84
 105, 107, 108, 109, 111
*Elset, elset=fixy
  1,  6, 11, 12
*Nset, nset=halfz
  3,  4, 15, 21, 43, 62, 75
*Elset, elset=halfz
  1,  3,  5,  6,  8, 10
*Elset, elset=_Surf-1_S2, generate
  6,  10,   1
*Elset, elset=_Surf-1_S5
 12,
*Surface, type=ELEMENT, name=Surf-1
_Surf-1_S2, S2
_Surf-1_S5, S5
** 
*Material, name=Material-1
*Elastic
 2.1e+11, 0.3
** 
*Step, name=Step-1, nlgeom=NO
*Static
1., 1., 1e-05, 1.
** 
*Boundary
fixy, 2, 2
**
*Boundary
fixx, 1, 1
**
*Boundary
Fixxy, 1, 1
Fixxy, 2, 2
**
*Boundary
halfz, 3, 3
** 
*Dsload
Surf-1, P, 1e+06
** 
*Restart, write, frequency=0
*NODE PRINT, NSET=Nall
U
*EL PRINT, ELSET=Eall
S
*NODE FILE
U
*EL FILE
S
*End Step
