*Heading
** 
*Node
      1,   2.12968779,  0.748563945,  0.300000012
      2,   2.41700006,           0.,  0.300000012
      3,         3.25,           0.,  0.300000012
      4,   2.83276558,   1.34800005,  0.300000012
      5,   2.41700006,           0.,           0.
      6,         3.25,           0.,           0.
      7,   2.83276558,   1.34800005,           0.
      8,   2.12968779,  0.748563945,           0.
      9,   1.36939037,   1.30441773,  0.300000012
     10,   1.16499996,  0.812830687,  0.300000012
     11,   1.78302097,  0.453000009,  0.300000012
     12,   1.16499996,  0.812830687,           0.
     13,   1.78302097,  0.453000009,           0.
     14,   1.36939037,   1.30441773,           0.
     15,   1.78299999,   2.29920578,  0.300000012
     16,   1.78299999,   2.29920578,           0.
     17,           0.,   1.58299994,  0.300000012
     18,           0.,           1.,  0.300000012
     19,           0.,   1.58299994,           0.
     20,           0.,           1.,           0.
** ... 329 like lines cut
*Element, type=C3D20
1,   8,  41,  89,  44,   1,  37,  88,  40, 109, 108, 107, 106, 110, 111, 112,
   113, 115, 114, 116, 117
2,  41,   5,  42,  89,  37,   2,  38,  88, 120, 119, 118, 108, 121, 122, 123,
   111, 114, 124, 125, 116
3,  44,  89,  43,   7,  40,  88,  39,   4, 107, 128, 127, 126, 112, 129, 130,
   131, 117, 116, 132, 133
4,  89,  42,   6,  43,  88,  38,   3,  39, 118, 135, 134, 128, 123, 136, 137,
   129, 116, 125, 138, 132
5,  14,  49,  91,  52,   9,  45,  90,  48, 142, 141, 140, 139, 143, 144, 145,
   146, 148, 147, 149, 150
6,  49,  12,  50,  91,  45,  10,  46,  90, 153, 152, 151, 141, 154, 155, 156,
   144, 147, 157, 158, 149
7,  52,  91,  51,   8,  48,  90,  47,   1, 140, 161, 160, 159, 145, 162, 163,
   164, 150, 149, 165, 115
8,  91,  50,  13,  51,  90,  46,  11,  47, 151, 167, 166, 161, 156, 168, 169,
   162, 149, 158, 170, 165
 9,  14,  52,  93,  56,   9,  48,  92,  54, 139, 173, 172, 171, 146, 174, 175,
    176, 148, 150, 177, 178
10,  52,   8,  44,  93,  48,   1,  40,  92, 159, 106, 179, 173, 164, 113, 180,
    174, 150, 115, 117, 177
** ... 76 like lines cut
*Nset, nset=Part-1-1_Set-4, generate
   1,  349,    1
*Elset, elset=Part-1-1_Set-4, generate
  1,  48,   1
**
*Solid Section, elset=Part-1-1_Set-4, material=Material-1
,
*System
*Nset, nset=Fixxy
   3,   4,   6,   7,  15,  16,  21,  22,  25,  26,  30,  33,  39,  43,  53,  55
  63,  65,  69,  75,  80, 127, 130, 132, 133, 134, 137, 138, 182, 185, 187, 188
 189, 190, 228, 231, 233, 234, 235, 236, 251, 253, 254, 256, 257, 285, 287, 288
 289, 313, 315, 316, 317
*Elset, elset=Fixxy
  3,  4, 11, 12, 19, 20, 23, 24, 31, 32, 39, 40
*Nset, nset=fixx
  17,  18,  19,  20,  21,  22,  31,  32,  33,  58,  61,  64,  66,  78,  81, 200
 203, 205, 206, 213, 214, 216, 217, 222, 224, 227, 232, 234, 296, 298, 299, 303
 305, 308, 310, 314, 316
*Elset, elset=fixx
 14, 16, 17, 19, 34, 36, 37, 39
*Nset, nset=fixy
   2,   3,   5,   6,  24,  25,  34,  35,  36,  38,  42,  68,  84,  85,  87, 119
 122, 124, 125, 135, 136, 138, 246, 248, 249, 255, 257, 324, 326, 327, 334, 336
 337, 338, 342, 344, 348
*Elset, elset=fixy
  2,  4, 22, 24, 42, 44, 45, 47
*Nset, nset=halfz
   3,   4,  15,  21,  39,  53,  63, 130, 137, 185, 190, 231, 236
*Elset, elset=halfz
  3,  4, 11, 12, 19, 20, 23, 24, 31, 32, 39, 40
*Elset, elset=_Surf-1_S2, generate
 21,  40,   1
*Elset, elset=_Surf-1_S5, generate
 45,  48,   1
*Surface, type=ELEMENT, name=Surf-1
_Surf-1_S2, S2
_Surf-1_S5, S5
** 
*Material, name=Material-1
*Elastic
 2.1e+11, 0.3
** 
*Step, name=Step-1, nlgeom=NO
*Static
1., 1., 1e-05, 1.
** 
*Boundary
fixy, 2, 2
**
*Boundary
fixx, 1, 1
**
*Boundary
Fixxy, 1, 1
Fixxy, 2, 2
**
*Boundary
halfz, 3, 3
** 
*Dsload
Surf-1, P, 1e+06
** 
*Restart, write, frequency=0
*NODE PRINT, NSET=Nall
U
*EL PRINT, ELSET=Eall
S
*NODE FILE
U
*EL FILE
S
*End Step
