*Heading
** 
*Node
      1,   2.12968779,  0.748563945,  0.300000012
      2,   2.41700006,           0.,  0.300000012
      3,         3.25,           0.,  0.300000012
      4,   2.83276558,   1.34800005,  0.300000012
      5,   2.41700006,           0.,           0.
      6,         3.25,           0.,           0.
      7,   2.83276558,   1.34800005,           0.
      8,   2.12968779,  0.748563945,           0.
      9,   1.36939037,   1.30441773,  0.300000012
     10,   1.16499996,  0.812830687,  0.300000012
     11,   1.78302097,  0.453000009,  0.300000012
     12,   1.16499996,  0.812830687,           0.
     13,   1.78302097,  0.453000009,           0.
     14,   1.36939037,   1.30441773,           0.
     15,   1.78299999,   2.29920578,  0.300000012
     16,   1.78299999,   2.29920578,           0.
     17,           0.,   1.58299994,  0.300000012
     18,           0.,           1.,  0.300000012
     19,           0.,   1.58299994,           0.
     20,           0.,           1.,           0.
** ... 85 like lines cut
*Element, type=C3D8
1,  8, 41, 89, 44,  1, 37, 88, 40
2, 41,  5, 42, 89, 37,  2, 38, 88
3, 44, 89, 43,  7, 40, 88, 39,  4
4, 89, 42,  6, 43, 88, 38,  3, 39
5, 14, 49, 91, 52,  9, 45, 90, 48
6, 49, 12, 50, 91, 45, 10, 46, 90
7, 52, 91, 51,  8, 48, 90, 47,  1
8, 91, 50, 13, 51, 90, 46, 11, 47
 9, 14, 52, 93, 56,  9, 48, 92, 54
10, 52,  8, 44, 93, 48,  1, 40, 92
11, 56, 93, 55, 16, 54, 92, 53, 15
12, 93, 44,  7, 55, 92, 40,  4, 53
13, 14, 60, 95, 49,  9, 57, 94, 45
14, 60, 19, 61, 95, 57, 17, 58, 94
15, 49, 95, 62, 12, 45, 94, 59, 10
16, 95, 61, 20, 62, 94, 58, 18, 59
17, 19, 60, 97, 66, 17, 57, 96, 64
18, 60, 14, 56, 97, 57,  9, 54, 96
19, 66, 97, 65, 22, 64, 96, 63, 21
20, 97, 56, 16, 65, 96, 54, 15, 63
** ... 28 like lines cut
*Nset, nset=Part-1-1_Set-4, generate
   1,  105,    1
*Elset, elset=Part-1-1_Set-4, generate
  1,  48,   1
**
*Solid Section, elset=Part-1-1_Set-4, material=Material-1
,
*System
*Nset, nset=Fixxy
  3,  4,  6,  7, 15, 16, 21, 22, 25, 26, 30, 33, 39, 43, 53, 55
 63, 65, 69, 75, 80
*Elset, elset=Fixxy
  3,  4, 11, 12, 19, 20, 23, 24, 31, 32, 39, 40
*Nset, nset=fixx
 17, 18, 19, 20, 21, 22, 31, 32, 33, 58, 61, 64, 66, 78, 81
*Elset, elset=fixx
 14, 16, 17, 19, 34, 36, 37, 39
*Nset, nset=fixy
  2,  3,  5,  6, 24, 25, 34, 35, 36, 38, 42, 68, 84, 85, 87
*Elset, elset=fixy
  2,  4, 22, 24, 42, 44, 45, 47
*Nset, nset=halfz
  3,  4, 15, 21, 39, 53, 63
*Elset, elset=halfz
  3,  4, 11, 12, 19, 20, 23, 24, 31, 32, 39, 40
*Elset, elset=_Surf-1_S2, generate
 21,  40,   1
*Elset, elset=_Surf-1_S5, generate
 45,  48,   1
*Surface, type=ELEMENT, name=Surf-1
_Surf-1_S2, S2
_Surf-1_S5, S5
**  
*Material, name=Material-1
*Elastic
 2.1e+11, 0.3
** 
*Step, name=Step-1, nlgeom=NO
*Static
1., 1., 1e-05, 1.
** 
*Boundary
fixy, 2, 2
**
*Boundary
fixx, 1, 1
**
*Boundary
Fixxy, 1, 1
Fixxy, 2, 2
**
*Boundary
halfz, 3, 3
** 
*Dsload
Surf-1, P, 1e+06
** 
*Restart, write, frequency=0
*NODE PRINT, NSET=Nall
U
*EL PRINT, ELSET=Eall
S
*NODE FILE
U
*EL FILE
S
*End Step
